nrt/data/MicroGrid_NL_MAS/MicroGrid_NL_MAS.iidm
<?xml version="1.0" encoding="UTF-8"?>
<iidm:network xmlns:iidm="http://www.powsybl.org/schema/iidm/1_5" id="urn:uuid:87da6373-3b6c-47a2-9493-1918a8d9df61" caseDate="2021-03-25T15:30:00.000Z" forecastDistance="0" sourceFormat="CGMES">
    <iidm:substation id="c49942d6-8b01-4b01-b5e8-f1180f84906c" name="PP_Amsterdam" country="NL" geographicalTags="TENNET TSO B.V.">
        <iidm:property name="CGMES.regionName" value="NL"/>
        <iidm:property name="CGMES.subRegionId" value="e58fc3bf-8c9f-450d-b3f7-9a1d19bd3bb4"/>
        <iidm:property name="CGMES.regionId" value="efc79870-d704-485e-a37b-0cf2e8e7657b"/>
        <iidm:voltageLevel id="d77b61ef-61aa-4b22-95f6-b56ca080788d" name="220.0" nominalV="220.0" lowVoltageLimit="198.0" highVoltageLimit="242.0" topologyKind="BUS_BREAKER">
            <iidm:property name="CGMES.lowVoltageLimit" value="198.0"/>
            <iidm:property name="CGMES.highVoltageLimit" value="242.0"/>
            <iidm:busBreakerTopology>
                <iidm:bus id="d77b61ef-61aa-4b22-95f6-b56ca080788d_0" name="220.0_0" v="224.24933968324032" angle="17.650061034911168"/>
            </iidm:busBreakerTopology>
            <iidm:load id="b1e03a8f-6a11-4454-af58-4a4a680e857f" name="NL-Load_3" loadType="UNDEFINED" p0="486.0" q0="230.0" bus="d77b61ef-61aa-4b22-95f6-b56ca080788d_0" connectableBus="d77b61ef-61aa-4b22-95f6-b56ca080788d_0" p="486.0" q="230.0">
                <iidm:alias type="CGMES.Terminal1">fab54e9c-b12e-4e47-a9f2-fec4ef96c0c0</iidm:alias>
                <iidm:property name="CGMES.pFixed" value="0.0"/>
                <iidm:property name="CGMES.originalClass" value="ConformLoad"/>
                <iidm:property name="CGMES.qFixed" value="0.0"/>
            </iidm:load>
            <iidm:danglingLine id="8fdc7abd-3746-481a-a65e-3df56acd8b13" name="NL-Line_4" p0="83.18928" q0="-1.501529" r="2.2" x="66.0" g="2.42E-5" b="8.98495E-5" bus="d77b61ef-61aa-4b22-95f6-b56ca080788d_0" connectableBus="d77b61ef-61aa-4b22-95f6-b56ca080788d_0" ucteXnodeCode="Border_ST23" p="84.71385656571641" q="3.2085226307996693">
                <iidm:alias type="CGMES.Terminal_Boundary">57979d14-d1d8-4311-ae53-aa8890423885</iidm:alias>
                <iidm:alias type="CGMES.Terminal1">653bc4b8-518b-4adc-9d68-012fb641fb1d</iidm:alias>
                <iidm:property name="CGMES.Terminal" value="653bc4b8-518b-4adc-9d68-012fb641fb1d"/>
                <iidm:property name="lineEnergyIdentificationCodeEIC" value="10T-AT-DE-00016Z"/>
                <iidm:property name="CGMES.Terminal_Boundary" value="57979d14-d1d8-4311-ae53-aa8890423885"/>
                <iidm:property name="CGMES.EquivalentInjectionTerminal" value="24dd035c-0a8c-4351-aeb2-08d6622b42ae"/>
                <iidm:property name="CGMES.originalClass" value="ACLineSegment"/>
                <iidm:property name="v" value="222.50884334179014"/>
                <iidm:property name="CGMES.EquivalentInjection" value="12baa3f3-23b1-44e0-956f-d331e1527f37"/>
                <iidm:property name="CGMES.ConnectivityNode_Boundary" value="b66f15c0-cb6e-11e1-bcee-406c8f32ef58"/>
                <iidm:property name="angle" value="11.328882259801485"/>
                <iidm:currentLimits permanentLimit="1574.0">
                    <iidm:temporaryLimit name="TATL" acceptableDuration="600" value="500.0"/>
                </iidm:currentLimits>
            </iidm:danglingLine>
            <iidm:danglingLine id="a279a3dc-550b-426c-af3a-61b7be508dcc" name="NL-Line_3" p0="103.7413" q0="-11.31944" r="5.06" x="69.0" g="2.3E-5" b="2.02319E-5" bus="d77b61ef-61aa-4b22-95f6-b56ca080788d_0" connectableBus="d77b61ef-61aa-4b22-95f6-b56ca080788d_0" ucteXnodeCode="Border_ST24" p="106.0055140854552" q="2.766719516200761">
                <iidm:alias type="CGMES.Terminal1">5dfee914-a4fd-4bde-a5b4-c4caa6378d10</iidm:alias>
                <iidm:alias type="CGMES.Terminal_Boundary">6aecb9ba-5835-4b70-89bc-96d687e45779</iidm:alias>
                <iidm:property name="CGMES.Terminal" value="5dfee914-a4fd-4bde-a5b4-c4caa6378d10"/>
                <iidm:property name="lineEnergyIdentificationCodeEIC" value="10T-AT-DE-00017X"/>
                <iidm:property name="CGMES.Terminal_Boundary" value="6aecb9ba-5835-4b70-89bc-96d687e45779"/>
                <iidm:property name="CGMES.EquivalentInjectionTerminal" value="26e50b4b-9a19-420d-98ce-bc4f11971cd7"/>
                <iidm:property name="CGMES.originalClass" value="ACLineSegment"/>
                <iidm:property name="v" value="223.05209233603676"/>
                <iidm:property name="CGMES.EquivalentInjection" value="820d95d7-26d4-4311-8b1f-026f8605b86d"/>
                <iidm:property name="CGMES.ConnectivityNode_Boundary" value="b6978550-cb6e-11e1-bcee-406c8f32ef58"/>
                <iidm:property name="angle" value="9.356043251476716"/>
                <iidm:currentLimits permanentLimit="2000.0">
                    <iidm:temporaryLimit name="TATL" acceptableDuration="600" value="500.0"/>
                </iidm:currentLimits>
            </iidm:danglingLine>
        </iidm:voltageLevel>
        <iidm:voltageLevel id="b7998ae6-0cc6-4dfe-8fec-0b549b07b6c3" name="400.0" nominalV="400.0" lowVoltageLimit="360.0" highVoltageLimit="440.0" topologyKind="BUS_BREAKER">
            <iidm:property name="CGMES.lowVoltageLimit" value="360.0"/>
            <iidm:property name="CGMES.highVoltageLimit" value="440.0"/>
            <iidm:busBreakerTopology>
                <iidm:bus id="b7998ae6-0cc6-4dfe-8fec-0b549b07b6c3_0" name="400.0_0" v="410.5538835248432" angle="0.0"/>
            </iidm:busBreakerTopology>
            <iidm:load id="69add5b4-70bd-4360-8a93-286256c0d38b" name="NL-Load_1" loadType="UNDEFINED" p0="90.0" q0="280.0" bus="b7998ae6-0cc6-4dfe-8fec-0b549b07b6c3_0" connectableBus="b7998ae6-0cc6-4dfe-8fec-0b549b07b6c3_0" p="90.0" q="280.0">
                <iidm:alias type="CGMES.Terminal1">f461fd2d-1e41-4a3e-8213-7cc33c77a089</iidm:alias>
                <iidm:property name="CGMES.pFixed" value="0.0"/>
                <iidm:property name="CGMES.originalClass" value="ConformLoad"/>
                <iidm:property name="CGMES.qFixed" value="0.0"/>
            </iidm:load>
            <iidm:load id="25ab1b5b-6803-47e2-805a-ab7b2072e034" name="NL-Load_2" loadType="UNDEFINED" p0="10.0" q0="10.0" bus="b7998ae6-0cc6-4dfe-8fec-0b549b07b6c3_0" connectableBus="b7998ae6-0cc6-4dfe-8fec-0b549b07b6c3_0" p="10.0" q="10.0">
                <iidm:alias type="CGMES.Terminal1">6dad1a97-6874-4206-a5a5-837e495325f8</iidm:alias>
                <iidm:property name="CGMES.pFixed" value="0.0"/>
                <iidm:property name="CGMES.originalClass" value="ConformLoad"/>
                <iidm:property name="CGMES.qFixed" value="0.0"/>
            </iidm:load>
            <iidm:shunt id="fbfed7e3-3dec-4829-a286-029e73535685" name="NL-S1" sectionCount="1" voltageRegulatorOn="false" targetV="400.0" targetDeadband="0.5" bus="b7998ae6-0cc6-4dfe-8fec-0b549b07b6c3_0" connectableBus="b7998ae6-0cc6-4dfe-8fec-0b549b07b6c3_0" q="-52.75755576980443">
                <iidm:alias type="CGMES.Terminal1">a015f692-3fc5-4ec3-8d1d-977c7b499e7c</iidm:alias>
                <iidm:property name="CGMES.RegulatingControl" value="613dfeb3-0161-4cec-aaa9-ccddd885771b"/>
                <iidm:property name="CGMES.normalSections" value="1"/>
                <iidm:shuntLinearModel bPerSection="3.13E-4" gPerSection="0.0" maximumSectionCount="1"/>
                <iidm:regulatingTerminal id="e8acf6b6-99cb-45ad-b8dc-16c7866a4ddc"/>
            </iidm:shunt>
            <iidm:danglingLine id="e8acf6b6-99cb-45ad-b8dc-16c7866a4ddc" name="NL-Line_5" p0="27.0286" q0="-120.7887" r="0.42" x="6.3" g="3.5E-5" b="6.48739E-5" bus="b7998ae6-0cc6-4dfe-8fec-0b549b07b6c3_0" connectableBus="b7998ae6-0cc6-4dfe-8fec-0b549b07b6c3_0" ucteXnodeCode="Border_GY11" p="32.96584632723059" q="-131.15589624142922">
                <iidm:alias type="CGMES.Terminal_Boundary">ae588863-b154-451d-978a-7ab08ac50fb6</iidm:alias>
                <iidm:alias type="CGMES.Terminal1">757d4f50-707b-47a0-891c-cbaefd649631</iidm:alias>
                <iidm:property name="CGMES.Terminal" value="757d4f50-707b-47a0-891c-cbaefd649631"/>
                <iidm:property name="lineEnergyIdentificationCodeEIC" value="10T-AT-HU-00002U"/>
                <iidm:property name="CGMES.Terminal_Boundary" value="ae588863-b154-451d-978a-7ab08ac50fb6"/>
                <iidm:property name="CGMES.EquivalentInjectionTerminal" value="f48d48c7-e9f6-460c-898f-cc68a96efdeb"/>
                <iidm:property name="CGMES.originalClass" value="ACLineSegment"/>
                <iidm:property name="v" value="412.37135346183067"/>
                <iidm:property name="CGMES.EquivalentInjection" value="b0442899-8dbe-48c1-a1fa-adb2a5929273"/>
                <iidm:property name="CGMES.ConnectivityNode_Boundary" value="b67c8340-cb6e-11e1-bcee-406c8f32ef58"/>
                <iidm:property name="angle" value="-0.074796080812206"/>
                <iidm:currentLimits permanentLimit="1876.0">
                    <iidm:temporaryLimit name="TATL" acceptableDuration="600" value="500.0"/>
                </iidm:currentLimits>
            </iidm:danglingLine>
            <iidm:danglingLine id="7f43f508-2496-4b64-9146-0a40406cbe49" name="NL-Line_1" p0="14.06748" q0="-63.95825" r="1.02" x="12.0" g="3.0E-5" b="1.413717E-4" bus="b7998ae6-0cc6-4dfe-8fec-0b549b07b6c3_0" connectableBus="b7998ae6-0cc6-4dfe-8fec-0b549b07b6c3_0" ucteXnodeCode="Border_AL11" p="19.149837270126863" q="-87.48446521680364">
                <iidm:alias type="CGMES.Terminal1">357e3e14-c38e-4a7e-9c95-b3dbe158f5f3</iidm:alias>
                <iidm:alias type="CGMES.Terminal_Boundary">6b1cd30c-19ba-44e1-9447-d01db6b1ef9d</iidm:alias>
                <iidm:property name="CGMES.Terminal" value="357e3e14-c38e-4a7e-9c95-b3dbe158f5f3"/>
                <iidm:property name="lineEnergyIdentificationCodeEIC" value="10T-ES-PT-10004U"/>
                <iidm:property name="CGMES.Terminal_Boundary" value="6b1cd30c-19ba-44e1-9447-d01db6b1ef9d"/>
                <iidm:property name="CGMES.EquivalentInjectionTerminal" value="39d27c17-1e5b-4edc-a7ec-65a2d56542df"/>
                <iidm:property name="CGMES.originalClass" value="ACLineSegment"/>
                <iidm:property name="v" value="412.3798418232962"/>
                <iidm:property name="CGMES.EquivalentInjection" value="83bea592-913e-4473-8d17-969968ff83a2"/>
                <iidm:property name="CGMES.ConnectivityNode_Boundary" value="b675a570-cb6e-11e1-bcee-406c8f32ef58"/>
                <iidm:property name="angle" value="-0.07920609067633766"/>
                <iidm:currentLimits permanentLimit="1233.9">
                    <iidm:temporaryLimit name="TATL" acceptableDuration="600" value="500.0"/>
                </iidm:currentLimits>
            </iidm:danglingLine>
            <iidm:danglingLine id="dad02278-bd25-476f-8f58-dbe44be72586" name="NL-Line_2" p0="8.953211" q0="-67.2335" r="2.32" x="20.24" g="4.0E-5" b="2.51327E-5" bus="b7998ae6-0cc6-4dfe-8fec-0b549b07b6c3_0" connectableBus="b7998ae6-0cc6-4dfe-8fec-0b549b07b6c3_0" ucteXnodeCode="Border_MA11" p="15.757725293839405" q="-70.92591234940777">
                <iidm:alias type="CGMES.Terminal1">c557146e-dfc4-4020-9738-d592b188338b</iidm:alias>
                <iidm:alias type="CGMES.Terminal_Boundary">8f308117-8bbd-4798-b145-4e78f7d049e7</iidm:alias>
                <iidm:property name="CGMES.Terminal" value="c557146e-dfc4-4020-9738-d592b188338b"/>
                <iidm:property name="lineEnergyIdentificationCodeEIC" value="10T-AT-SI-00001T"/>
                <iidm:property name="CGMES.Terminal_Boundary" value="8f308117-8bbd-4798-b145-4e78f7d049e7"/>
                <iidm:property name="CGMES.EquivalentInjectionTerminal" value="f970233f-b573-49d9-9fc3-3a2a59ed3bbb"/>
                <iidm:property name="CGMES.originalClass" value="ACLineSegment"/>
                <iidm:property name="v" value="413.7915042389071"/>
                <iidm:property name="CGMES.EquivalentInjection" value="cab82e1c-1435-447b-bba0-74b592539eac"/>
                <iidm:property name="CGMES.ConnectivityNode_Boundary" value="b67cf870-cb6e-11e1-bcee-406c8f32ef58"/>
                <iidm:property name="angle" value="-0.11372394942378848"/>
                <iidm:currentLimits permanentLimit="1371.0">
                    <iidm:temporaryLimit name="TATL" acceptableDuration="600" value="500.0"/>
                </iidm:currentLimits>
            </iidm:danglingLine>
        </iidm:voltageLevel>
        <iidm:voltageLevel id="8d8a82ba-b5b0-4e94-861a-192af055f2b8" name="15.8" nominalV="15.75" lowVoltageLimit="14.175" highVoltageLimit="17.325" topologyKind="BUS_BREAKER">
            <iidm:property name="CGMES.lowVoltageLimit" value="14.175"/>
            <iidm:property name="CGMES.highVoltageLimit" value="17.325"/>
            <iidm:busBreakerTopology>
                <iidm:bus id="8d8a82ba-b5b0-4e94-861a-192af055f2b8_0" name="15.8_0" v="16.0335" angle="20.34962086331641"/>
            </iidm:busBreakerTopology>
            <iidm:generator id="9c3b8f97-7972-477d-9dc8-87365cc0ad0e" name="NL-G1" energySource="OTHER" minP="300.0" maxP="1000.0" ratedS="1100.0" voltageRegulatorOn="true" targetP="600.4927" targetV="16.0335" targetQ="386.9225" bus="8d8a82ba-b5b0-4e94-861a-192af055f2b8_0" connectableBus="8d8a82ba-b5b0-4e94-861a-192af055f2b8_0" p="-571.7655822885367" q="-87.087223453259">
                <iidm:alias type="CGMES.Terminal1">faab7959-f9bf-421b-bc3f-d364e0c1388b</iidm:alias>
                <iidm:property name="CGMES.synchronousMachineType" value="generator"/>
                <iidm:property name="CGMES.mode" value="http://iec.ch/tc57/cim100#regulatingcontrolmodekind.voltage"/>
                <iidm:property name="CGMES.originalClass" value="SynchronousMachine"/>
                <iidm:property name="CGMES.GeneratingUnit" value="049438a6-780a-44fe-a788-ebe385d98e25"/>
                <iidm:property name="CGMES.RegulatingControl" value="04f338d3-3c0d-433f-a77b-e36dd256f0f0"/>
                <iidm:minMaxReactiveLimits minQ="0.0" maxQ="600.0"/>
            </iidm:generator>
            <iidm:generator id="2844585c-0d35-488d-a449-685bcd57afbf" name="NL-G2" energySource="OTHER" minP="130.0" maxP="250.0" ratedS="250.0" voltageRegulatorOn="false" targetP="140.0" targetQ="77.743" bus="8d8a82ba-b5b0-4e94-861a-192af055f2b8_0" connectableBus="8d8a82ba-b5b0-4e94-861a-192af055f2b8_0" p="-132.81822057213418" q="-77.743">
                <iidm:alias type="CGMES.Terminal1">ae4b7cbe-349a-41c8-ace2-25ec26f14a64</iidm:alias>
                <iidm:property name="CGMES.synchronousMachineType" value="generator"/>
                <iidm:property name="CGMES.originalClass" value="SynchronousMachine"/>
                <iidm:property name="CGMES.GeneratingUnit" value="ca80ee09-3bed-4884-bc28-6dc89d067289"/>
                <iidm:minMaxReactiveLimits minQ="0.0" maxQ="200.0"/>
            </iidm:generator>
            <iidm:generator id="1dc9afba-23b5-41a0-8540-b479ed8baf4b" name="NL-G3" energySource="OTHER" minP="130.0" maxP="250.0" ratedS="250.0" voltageRegulatorOn="false" targetP="150.0" targetQ="83.296" bus="8d8a82ba-b5b0-4e94-861a-192af055f2b8_0" connectableBus="8d8a82ba-b5b0-4e94-861a-192af055f2b8_0" p="-142.81822057213418" q="-83.296">
                <iidm:alias type="CGMES.Terminal1">f04ecab5-1a12-4cc0-ba56-b157ebf11a42</iidm:alias>
                <iidm:property name="CGMES.synchronousMachineType" value="generator"/>
                <iidm:property name="CGMES.originalClass" value="SynchronousMachine"/>
                <iidm:property name="CGMES.GeneratingUnit" value="b850063d-eae7-4675-bc98-4642d3076783"/>
                <iidm:minMaxReactiveLimits minQ="0.0" maxQ="200.0"/>
            </iidm:generator>
        </iidm:voltageLevel>
        <iidm:twoWindingsTransformer id="e8a7eaec-51d6-4571-b3d9-c36d52073c33" name="NL-TR2_1" r="0.4083750000000001" x="8.4601506" g="1.8595041322314046E-6" b="-1.4692561983471074E-5" ratedU1="400.0" ratedU2="220.0" ratedS="320.0" voltageLevelId1="b7998ae6-0cc6-4dfe-8fec-0b549b07b6c3" bus1="b7998ae6-0cc6-4dfe-8fec-0b549b07b6c3_0" connectableBus1="b7998ae6-0cc6-4dfe-8fec-0b549b07b6c3_0" voltageLevelId2="d77b61ef-61aa-4b22-95f6-b56ca080788d" bus2="d77b61ef-61aa-4b22-95f6-b56ca080788d_0" connectableBus2="d77b61ef-61aa-4b22-95f6-b56ca080788d_0" p1="-168.0226777620676" q1="52.323838232893394" p2="168.3651641299381" q2="-46.3906204571027">
            <iidm:alias type="CGMES.TransformerEnd2">0dec3883-a2b6-4353-83cc-d4dd5df513a6</iidm:alias>
            <iidm:alias type="CGMES.PhaseTapChanger1">341327c4-9224-40bf-bc33-7a3bb0bae680</iidm:alias>
            <iidm:alias type="CGMES.TransformerEnd1">c614f321-2c88-4fa3-b98a-8ec3cde73db4</iidm:alias>
            <iidm:alias type="CGMES.Terminal2">baa7aef1-afcd-4981-97c0-ccec7b5ad4e0</iidm:alias>
            <iidm:alias type="CGMES.Terminal1">e3e0c496-5837-4f0f-a596-cc421940f73f</iidm:alias>
            <iidm:phaseTapChanger regulating="false" lowTapPosition="-20" tapPosition="8" regulationMode="FIXED_TAP">
                <iidm:step r="0.0" x="6.249982122067658" g="0.0" b="0.0" rho="1.0" alpha="-40.0"/>
                <iidm:step r="0.0" x="5.663165336578756" g="0.0" b="0.0" rho="1.0" alpha="-38.0"/>
                <iidm:step r="0.0" x="5.101996236756837" g="0.0" b="0.0" rho="1.0" alpha="-36.0"/>
                <iidm:step r="0.0" x="4.5671585207085705" g="0.0" b="0.0" rho="1.0" alpha="-34.0"/>
                <iidm:step r="0.0" x="4.0593038058055155" g="0.0" b="0.0" rho="1.0" alpha="-32.0"/>
                <iidm:step r="0.0" x="3.579050834788764" g="0.0" b="0.0" rho="1.0" alpha="-30.0"/>
                <iidm:step r="0.0" x="3.1269847219261995" g="0.0" b="0.0" rho="1.0" alpha="-28.0"/>
                <iidm:step r="0.0" x="2.703656240140899" g="0.0" b="0.0" rho="1.0" alpha="-26.0"/>
                <iidm:step r="0.0" x="2.3095811499791554" g="0.0" b="0.0" rho="1.0" alpha="-24.0"/>
                <iidm:step r="0.0" x="1.9452395712357367" g="0.0" b="0.0" rho="1.0" alpha="-22.0"/>
                <iidm:step r="0.0" x="1.6110753980018124" g="0.0" b="0.0" rho="1.0" alpha="-20.0"/>
                <iidm:step r="0.0" x="1.307495757848421" g="0.0" b="0.0" rho="1.0" alpha="-18.0"/>
                <iidm:step r="0.0" x="1.0348705158042308" g="0.0" b="0.0" rho="1.0" alpha="-16.0"/>
                <iidm:step r="0.0" x="0.7935318237319766" g="0.0" b="0.0" rho="1.0" alpha="-14.0"/>
                <iidm:step r="0.0" x="0.5837737156525631" g="0.0" b="0.0" rho="1.0" alpha="-12.0"/>
                <iidm:step r="0.0" x="0.4058517495099393" g="0.0" b="0.0" rho="1.0" alpha="-10.0"/>
                <iidm:step r="0.0" x="0.259982695813068" g="0.0" b="0.0" rho="1.0" alpha="-8.0"/>
                <iidm:step r="0.0" x="0.14634427353448118" g="0.0" b="0.0" rho="1.0" alpha="-6.0"/>
                <iidm:step r="0.0" x="0.0650749335870492" g="0.0" b="0.0" rho="1.0" alpha="-4.0"/>
                <iidm:step r="0.0" x="0.016273690142932947" g="0.0" b="0.0" rho="1.0" alpha="-2.0"/>
                <iidm:step r="0.0" x="0.0" g="0.0" b="0.0" rho="1.0" alpha="0.0"/>
                <iidm:step r="0.0" x="0.016273690142932947" g="0.0" b="0.0" rho="1.0" alpha="2.0"/>
                <iidm:step r="0.0" x="0.0650749335870492" g="0.0" b="0.0" rho="1.0" alpha="4.0"/>
                <iidm:step r="0.0" x="0.14634427353448118" g="0.0" b="0.0" rho="1.0" alpha="6.0"/>
                <iidm:step r="0.0" x="0.259982695813068" g="0.0" b="0.0" rho="1.0" alpha="8.0"/>
                <iidm:step r="0.0" x="0.4058517495099393" g="0.0" b="0.0" rho="1.0" alpha="10.0"/>
                <iidm:step r="0.0" x="0.5837737156525631" g="0.0" b="0.0" rho="1.0" alpha="12.0"/>
                <iidm:step r="0.0" x="0.7935318237319766" g="0.0" b="0.0" rho="1.0" alpha="14.0"/>
                <iidm:step r="0.0" x="1.0348705158042308" g="0.0" b="0.0" rho="1.0" alpha="16.0"/>
                <iidm:step r="0.0" x="1.307495757848421" g="0.0" b="0.0" rho="1.0" alpha="18.0"/>
                <iidm:step r="0.0" x="1.6110753980018124" g="0.0" b="0.0" rho="1.0" alpha="20.0"/>
                <iidm:step r="0.0" x="1.9452395712357367" g="0.0" b="0.0" rho="1.0" alpha="22.0"/>
                <iidm:step r="0.0" x="2.3095811499791554" g="0.0" b="0.0" rho="1.0" alpha="24.0"/>
                <iidm:step r="0.0" x="2.703656240140899" g="0.0" b="0.0" rho="1.0" alpha="26.0"/>
                <iidm:step r="0.0" x="3.1269847219261995" g="0.0" b="0.0" rho="1.0" alpha="28.0"/>
                <iidm:step r="0.0" x="3.579050834788764" g="0.0" b="0.0" rho="1.0" alpha="30.0"/>
                <iidm:step r="0.0" x="4.0593038058055155" g="0.0" b="0.0" rho="1.0" alpha="32.0"/>
                <iidm:step r="0.0" x="4.5671585207085705" g="0.0" b="0.0" rho="1.0" alpha="34.0"/>
                <iidm:step r="0.0" x="5.101996236756837" g="0.0" b="0.0" rho="1.0" alpha="36.0"/>
                <iidm:step r="0.0" x="5.663165336578756" g="0.0" b="0.0" rho="1.0" alpha="38.0"/>
                <iidm:step r="0.0" x="6.249982122067658" g="0.0" b="0.0" rho="1.0" alpha="40.0"/>
            </iidm:phaseTapChanger>
            <iidm:currentLimits1 permanentLimit="461.8804"/>
            <iidm:currentLimits2 permanentLimit="839.7826"/>
        </iidm:twoWindingsTransformer>
        <iidm:twoWindingsTransformer id="80016742-31b3-432a-b00a-300667a1e572" name="NL_TR2_3" r="3.3468961518595046E-4" x="0.027560466411415293" g="0.003547489523809523" b="-0.027710349931972786" ratedU1="220.0" ratedU2="15.75" ratedS="1260.0" voltageLevelId1="d77b61ef-61aa-4b22-95f6-b56ca080788d" bus1="d77b61ef-61aa-4b22-95f6-b56ca080788d_0" connectableBus1="d77b61ef-61aa-4b22-95f6-b56ca080788d_0" voltageLevelId2="8d8a82ba-b5b0-4e94-861a-192af055f2b8" bus2="8d8a82ba-b5b0-4e94-861a-192af055f2b8_0" connectableBus2="8d8a82ba-b5b0-4e94-861a-192af055f2b8_0" p1="-407.34025023308834" q1="-178.36343286205292" p2="408.484811318457" q2="209.01654298319966">
            <iidm:alias type="CGMES.TransformerEnd2">4df90339-ae02-4da1-8e1e-69ab068df065</iidm:alias>
            <iidm:alias type="CGMES.TransformerEnd1">f3600241-63dc-485b-aefb-4ec24028f8b3</iidm:alias>
            <iidm:alias type="CGMES.RatioTapChanger1">44b4277a-0f4b-43a8-ad93-6f7d6ef02061</iidm:alias>
            <iidm:alias type="CGMES.Terminal2">70b326a3-5913-494f-b8f8-8e366253b597</iidm:alias>
            <iidm:alias type="CGMES.Terminal1">c9b27b4e-d492-4c3c-b147-67addbb9d3ea</iidm:alias>
            <iidm:ratioTapChanger regulating="false" lowTapPosition="-15" tapPosition="5" loadTapChangingCapabilities="true">
                <iidm:step r="0.065302" x="5.680805" g="0.0" b="0.0" rho="1.0869565217391304"/>
                <iidm:step r="0.065302" x="5.680916" g="0.0" b="0.0" rho="1.081081081081081"/>
                <iidm:step r="0.065302" x="5.681027" g="0.0" b="0.0" rho="1.075268817204301"/>
                <iidm:step r="0.065302" x="5.681139" g="0.0" b="0.0" rho="1.0638297872340425"/>
                <iidm:step r="0.065302" x="5.681139" g="0.0" b="0.0" rho="1.0582010582010584"/>
                <iidm:step r="0.065302" x="5.68125" g="0.0" b="0.0" rho="1.0526315789473684"/>
                <iidm:step r="0.065302" x="5.68125" g="0.0" b="0.0" rho="1.0471204188481675"/>
                <iidm:step r="0.065302" x="5.681361" g="0.0" b="0.0" rho="1.0416666666666667"/>
                <iidm:step r="0.065302" x="5.681472" g="0.0" b="0.0" rho="1.0362694300518136"/>
                <iidm:step r="0.065302" x="5.681583" g="0.0" b="0.0" rho="1.0309278350515465"/>
                <iidm:step r="0.065302" x="5.681583" g="0.0" b="0.0" rho="1.0256410256410258"/>
                <iidm:step r="0.065302" x="5.681694" g="0.0" b="0.0" rho="1.0204081632653061"/>
                <iidm:step r="0.065302" x="5.681805" g="0.0" b="0.0" rho="1.015228426395939"/>
                <iidm:step r="0.065302" x="5.681916" g="0.0" b="0.0" rho="1.0101010101010102"/>
                <iidm:step r="0.065302" x="5.682027" g="0.0" b="0.0" rho="1.0050251256281406"/>
                <iidm:step r="0.065302" x="5.682138" g="0.0" b="0.0" rho="1.0"/>
                <iidm:step r="0.065302" x="5.68225" g="0.0" b="0.0" rho="0.9950248756218907"/>
                <iidm:step r="0.065302" x="5.682361" g="0.0" b="0.0" rho="0.9900990099009901"/>
                <iidm:step r="0.065302" x="5.682361" g="0.0" b="0.0" rho="0.984930562395351"/>
                <iidm:step r="0.065302" x="5.682472" g="0.0" b="0.0" rho="0.9803921568627451"/>
                <iidm:step r="0.065302" x="5.682583" g="0.0" b="0.0" rho="0.9756097560975611"/>
                <iidm:step r="0.065302" x="5.682694" g="0.0" b="0.0" rho="0.9699321047526674"/>
                <iidm:step r="0.065302" x="5.682805" g="0.0" b="0.0" rho="0.9643201542912248"/>
                <iidm:step r="0.065302" x="5.682916" g="0.0" b="0.0" rho="0.9587727708533078"/>
                <iidm:step r="0.065302" x="5.682916" g="0.0" b="0.0" rho="0.9523809523809523"/>
                <iidm:step r="0.065302" x="5.683027" g="0.0" b="0.0" rho="0.9478672985781991"/>
                <iidm:step r="0.065302" x="5.683027" g="0.0" b="0.0" rho="0.9433962264150942"/>
                <iidm:step r="0.065302" x="5.683138" g="0.0" b="0.0" rho="0.9389671361502347"/>
                <iidm:step r="0.065302" x="5.683138" g="0.0" b="0.0" rho="0.9328358208955223"/>
                <iidm:step r="0.065302" x="5.683249" g="0.0" b="0.0" rho="0.9259259259259258"/>
                <iidm:step r="0.065302" x="5.683361" g="0.0" b="0.0" rho="0.9216589861751152"/>
            </iidm:ratioTapChanger>
            <iidm:currentLimits1 permanentLimit="3306.644"/>
            <iidm:currentLimits2 permanentLimit="46188.04"/>
        </iidm:twoWindingsTransformer>
        <iidm:twoWindingsTransformer id="2184f365-8cd5-4b5d-8a28-9d68603bb6a4" name="NL_TR2_2" r="3.543757321797521E-4" x="0.0275602203990186" g="0.003547489523809523" b="-0.027710349931972786" ratedU1="220.0" ratedU2="15.75" ratedS="1260.0" voltageLevelId1="d77b61ef-61aa-4b22-95f6-b56ca080788d" bus1="d77b61ef-61aa-4b22-95f6-b56ca080788d_0" connectableBus1="d77b61ef-61aa-4b22-95f6-b56ca080788d_0" voltageLevelId2="8d8a82ba-b5b0-4e94-861a-192af055f2b8" bus2="8d8a82ba-b5b0-4e94-861a-192af055f2b8_0" connectableBus2="8d8a82ba-b5b0-4e94-861a-192af055f2b8_0" p1="-437.74428810659344" q1="-11.221183793046615" p2="438.9172114595223" q2="39.109680470059324">
            <iidm:alias type="CGMES.Terminal1">421c7930-64c3-435d-afb8-2bb73b333e34</iidm:alias>
            <iidm:alias type="CGMES.TransformerEnd1">0dbed103-fc51-4df4-a6fa-0dee4c57f3a3</iidm:alias>
            <iidm:alias type="CGMES.TransformerEnd2">41ca9e70-1cb4-4971-b8e6-a97a15580b89</iidm:alias>
            <iidm:alias type="CGMES.PhaseTapChanger1">ee649b97-d2ec-47e1-976f-0f4d9f50fa11</iidm:alias>
            <iidm:alias type="CGMES.Terminal2">31bf04d0-7e34-465b-95a4-0604700325cf</iidm:alias>
            <iidm:phaseTapChanger regulating="false" lowTapPosition="0" tapPosition="17" regulationMode="FIXED_TAP">
                <iidm:step r="0.0" x="0.0" g="0.0" b="0.0" rho="1.0869377366195518" alpha="0.07682406"/>
                <iidm:step r="0.0" x="0.0" g="0.0" b="0.0" rho="1.0810641346703214" alpha="0.07163366"/>
                <iidm:step r="0.0" x="0.0" g="0.0" b="0.0" rho="1.0752537867750236" alpha="0.06649923"/>
                <iidm:step r="0.0" x="0.0" g="0.0" b="0.0" rho="1.0695044183901286" alpha="0.0614186"/>
                <iidm:step r="0.0" x="0.0" g="0.0" b="0.0" rho="1.0638173383077432" alpha="0.05639308"/>
                <iidm:step r="0.0" x="0.0" g="0.0" b="0.0" rho="1.0581901963545983" alpha="0.05142054"/>
                <iidm:step r="0.0" x="0.0" g="0.0" b="0.0" rho="1.052622160749088" alpha="0.04650027"/>
                <iidm:step r="0.0" x="0.0" g="0.0" b="0.0" rho="1.0471125243872508" alpha="0.04163161"/>
                <iidm:step r="0.0" x="0.0" g="0.0" b="0.0" rho="1.041660047785113" alpha="0.03681348"/>
                <iidm:step r="0.0" x="0.0" g="0.0" b="0.0" rho="1.036263094349993" alpha="0.03204435"/>
                <iidm:step r="0.0" x="0.0" g="0.0" b="0.0" rho="1.0309227335782256" alpha="0.02732521"/>
                <iidm:step r="0.0" x="0.0" g="0.0" b="0.0" rho="1.025637133479596" alpha="0.02265452"/>
                <iidm:step r="0.0" x="0.0" g="0.0" b="0.0" rho="1.0204055601898976" alpha="0.01803153"/>
                <iidm:step r="0.0" x="0.0" g="0.0" b="0.0" rho="1.0152266742280749" alpha="0.01345523"/>
                <iidm:step r="0.0" x="0.0" g="0.0" b="0.0" rho="1.0100992755871026" alpha="0.008924291"/>
                <iidm:step r="0.0" x="0.0" g="0.0" b="0.0" rho="1.0050242165610102" alpha="0.004439676"/>
                <iidm:step r="0.0" x="0.0" g="0.0" b="0.0" rho="1.0" alpha="-0.0"/>
                <iidm:step r="0.0" x="0.0" g="0.0" b="0.0" rho="0.9950258656973788" alpha="-0.004395567"/>
                <iidm:step r="0.0" x="0.0" g="0.0" b="0.0" rho="0.9901009704969713" alpha="-0.008747523"/>
                <iidm:step r="0.0" x="0.0" g="0.0" b="0.0" rho="0.9852236162041698" alpha="-0.01305754"/>
                <iidm:step r="0.0" x="0.0" g="0.0" b="0.0" rho="0.980394079204077" alpha="-0.01732449"/>
                <iidm:step r="0.0" x="0.0" g="0.0" b="0.0" rho="0.9756126115491071" alpha="-0.02154983"/>
                <iidm:step r="0.0" x="0.0" g="0.0" b="0.0" rho="0.9708756716032458" alpha="-0.02573574"/>
                <iidm:step r="0.0" x="0.0" g="0.0" b="0.0" rho="0.9661863754194457" alpha="-0.02987964"/>
                <iidm:step r="0.0" x="0.0" g="0.0" b="0.0" rho="0.9615412352151015" alpha="-0.03398448"/>
                <iidm:step r="0.0" x="0.0" g="0.0" b="0.0" rho="0.9569405462408026" alpha="-0.03804918"/>
                <iidm:step r="0.0" x="0.0" g="0.0" b="0.0" rho="0.9523836734771622" alpha="-0.04207603"/>
                <iidm:step r="0.0" x="0.0" g="0.0" b="0.0" rho="0.9478708924014877" alpha="-0.04606397"/>
                <iidm:step r="0.0" x="0.0" g="0.0" b="0.0" rho="0.943400676418285" alpha="-0.05001429"/>
                <iidm:step r="0.0" x="0.0" g="0.0" b="0.0" rho="0.9389688994721118" alpha="-0.05392985"/>
                <iidm:step r="0.0" x="0.0" g="0.0" b="0.0" rho="0.9345820595758679" alpha="-0.05780642"/>
                <iidm:step r="0.0" x="0.0" g="0.0" b="0.0" rho="0.9302360194828632" alpha="-0.06164702"/>
                <iidm:step r="0.0" x="0.0" g="0.0" b="0.0" rho="0.9259293552939085" alpha="-0.0654528"/>
                <iidm:step r="0.0" x="0.0" g="0.0" b="0.0" rho="0.9216606850888205" alpha="-0.06922422"/>
            </iidm:phaseTapChanger>
            <iidm:currentLimits1 permanentLimit="3306.644"/>
            <iidm:currentLimits2 permanentLimit="46188.04"/>
        </iidm:twoWindingsTransformer>
    </iidm:substation>
</iidm:network>
